---- qbsp / ericw-tools v0.18.1-32-g6660c5f ----
Input file: ../../../../../MapDir/working/functional.map
Output file: ../../../../../Game/maps/functional.bsp

---- LoadMapFile ----
*** WARNING 06: No info_player_deathmatch entities in level
           84 faces
           14 brushes
            9 entities
            4 unique texnames
           34 texinfo

Opened WAD: I:/quake-leveldesign-starterkit/wads/id1.wad
Processing hull 0...
---- Brush_LoadEntity ----
           14 brushes
           33 planes
---- CSGFaces ----
           84 brushfaces
          119 csgfaces
          116 mergedfaces
---- SolidBSP ----
          130 split nodes
           32 solid leafs
           52 empty leafs
           47 water leafs
            0 detail leafs
            0 detail illusionary leafs
            0 detail fence leafs
            0 illusionary visblocker leafs
          296 leaffaces
          290 nodefaces
---- Portalize ----
           99 vis leafs
           99 vis clusters
          256 vis portals
---- FillOutside ----
*** WARNING 19: No entities in empty space -- no filling performed (hull 0)
---- MakeFaceEdges ----
---- GrowRegions ----
Processing hull 1...
*** WARNING 19: No entities in empty space -- no filling performed (hull 1)
Processing hull 2...
*** WARNING 19: No entities in empty space -- no filling performed (hull 2)
---- WriteBSPFile ----
Wrote ../../../../../Game/maps/functional.bsp
           44 planes              880
          325 vertexes           3900
          130 nodes              3120
           32 texinfo            1280
          290 faces              5800
           12 clipnodes            96
          100 leafs              2800
          296 marksurfaces        592
         1160 surfedges          4640
          796 edges              3184
            4 textures          60020
              lightdata             0
              visdata               0
              entdata             773

0.018 seconds elapsed
Peak memory usage: 870980 (0.8M)
