---- qbsp / ericw-tools v0.18.1-32-g6660c5f ----
Input file: ../../../../../MapDir/id1/maps/functional.map
Output file: ../../../../../Game/maps/functional.bsp

---- LoadMapFile ----
*** WARNING 06: No info_player_deathmatch entities in level
           90 faces
           15 brushes
            7 entities
            6 unique texnames
           46 texinfo

Opened WAD: I:/quake-leveldesign-starterkit/wads/id1.wad
Processing hull 0...
---- Brush_LoadEntity ----
           15 brushes
           37 planes
---- CSGFaces ----
           90 brushfaces
          151 csgfaces
          146 mergedfaces
---- SolidBSP ----
          148 split nodes
           40 solid leafs
           53 empty leafs
           56 water leafs
            0 detail leafs
            0 detail illusionary leafs
            0 detail fence leafs
            0 illusionary visblocker leafs
          346 leaffaces
          330 nodefaces
---- Portalize ----
          109 vis leafs
          109 vis clusters
          286 vis portals
---- FillOutside ----
*** WARNING 19: No entities in empty space -- no filling performed (hull 0)
---- MakeFaceEdges ----
---- GrowRegions ----
Processing hull 1...
*** WARNING 19: No entities in empty space -- no filling performed (hull 1)
Processing hull 2...
*** WARNING 19: No entities in empty space -- no filling performed (hull 2)
---- WriteBSPFile ----
Wrote ../../../../../Game/maps/functional.bsp
           48 planes              960
          386 vertexes           4632
          148 nodes              3552
           42 texinfo            1680
          330 faces              6600
           12 clipnodes            96
          110 leafs              3080
          346 marksurfaces        692
         1320 surfedges          5280
          938 edges              3752
            6 textures          70988
              lightdata             0
              visdata               0
              entdata             547

0.025 seconds elapsed
Peak memory usage: 955828 (0.9M)
