---- qbsp / ericw-tools v0.18.1-32-g6660c5f ----
Input file: ../../../../../MapDir/working/omen_map-test_1.map
Output file: ../../../../../Game/maps/omen_map-test_1.bsp

---- LoadMapFile ----
*** WARNING 05: No info_player_start entity in level
*** WARNING 06: No info_player_deathmatch entities in level
           72 faces
           12 brushes
            3 entities
            7 unique texnames
           21 texinfo

Opened WAD: I:/OMEN/Assets/Tools/quake-leveldesign-starterkit/wads/id1.wad
Processing hull 0...
---- Brush_LoadEntity ----
           12 brushes
           28 planes
---- CSGFaces ----
           72 brushfaces
           88 csgfaces
           61 mergedfaces
---- SolidBSP ----
          104 split nodes
           19 solid leafs
           49 empty leafs
           37 water leafs
            0 detail leafs
            0 detail illusionary leafs
            0 detail fence leafs
            0 illusionary visblocker leafs
          240 leaffaces
          238 nodefaces
---- Portalize ----
           86 vis leafs
           86 vis clusters
          211 vis portals
---- FillOutside ----
*** WARNING 19: No entities in empty space -- no filling performed (hull 0)
---- MakeFaceEdges ----
---- GrowRegions ----
Processing hull 1...
*** WARNING 19: No entities in empty space -- no filling performed (hull 1)
Processing hull 2...
*** WARNING 19: No entities in empty space -- no filling performed (hull 2)
---- WriteBSPFile ----
Wrote ../../../../../Game/maps/omen_map-test_1.bsp
           38 planes              760
          248 vertexes           2976
          104 nodes              2496
           16 texinfo             640
          238 faces              4760
           12 clipnodes            96
           87 leafs              2436
          240 marksurfaces        480
          952 surfedges          3808
          625 edges              2500
            7 textures          76472
              lightdata             0
              visdata               0
              entdata             284

0.018 seconds elapsed
Peak memory usage: 752520 (0.7M)
