---- qbsp / ericw-tools v0.18.1-32-g6660c5f ----
Input file: ../../../../../MapDir/working/omen_map-test_1.map
Output file: ../../../../../Game/maps/omen_map-test_1.bsp

---- LoadMapFile ----
*** WARNING 06: No info_player_deathmatch entities in level
           60 faces
           10 brushes
            9 entities
            4 unique texnames
           13 texinfo

Opened WAD: I:/OMEN/Assets/Tools/quake-leveldesign-starterkit/wads/id1.wad
Processing hull 0...
---- Brush_LoadEntity ----
           10 brushes
           21 planes
---- CSGFaces ----
           60 brushfaces
           57 csgfaces
           52 mergedfaces
---- SolidBSP ----
           40 split nodes
           10 solid leafs
           31 empty leafs
            0 water leafs
            0 detail leafs
            0 detail illusionary leafs
            0 detail fence leafs
            0 illusionary visblocker leafs
          199 leaffaces
          154 nodefaces
---- Portalize ----
           31 vis leafs
           31 vis clusters
           73 vis portals
---- FillOutside ----
           18 outleafs
---- MergeAll ----
           33 mergefaces
---- SolidBSP ----
           20 split nodes
           10 solid leafs
           11 empty leafs
            0 water leafs
            0 detail leafs
            0 detail illusionary leafs
            0 detail fence leafs
            0 illusionary visblocker leafs
          100 leaffaces
           68 nodefaces
---- Portalize ----
           11 vis leafs
           11 vis clusters
           23 vis portals
---- Tjunc ----
           64 world edges
          236 edge points
           46 edges added by tjunctions
            0 faces added by tjunctions
---- MakeFaceEdges ----
---- GrowRegions ----
Processing hull 1...
Processing hull 2...
*** WARNING 19: No entities in empty space -- no filling performed (hull 2)
---- WriteBSPFile ----
Wrote ../../../../../Game/maps/omen_map-test_1.bsp
           45 planes              900
           93 vertexes           1116
           20 nodes               480
            7 texinfo             280
           68 faces              1360
           52 clipnodes           416
           12 leafs               336
          100 marksurfaces        200
          318 surfedges          1272
          160 edges               640
            4 textures          21940
              lightdata             0
              visdata               0
              entdata             897

0.015 seconds elapsed
Peak memory usage: 522844 (510.6k)
