---- qbsp / ericw-tools v0.18.1-32-g6660c5f ----
Input file: ../../../../../MapDir/working/omen_map-test_1.map
Output file: ../../../../../Game/maps/unnamed.bsp

---- LoadMapFile ----
*** WARNING 06: No info_player_deathmatch entities in level
          225 faces
           37 brushes
           14 entities
            5 unique texnames
           16 texinfo

Opened WAD: I:/OMEN/Assets/Tools/quake-leveldesign-starterkit/wads/id1.wad
Processing hull 0...
---- Brush_LoadEntity ----
           36 brushes
           82 planes
---- CSGFaces ----
          219 brushfaces
          258 csgfaces
          207 mergedfaces
---- SolidBSP ----
          262 split nodes
           96 solid leafs
          167 empty leafs
            0 water leafs
            0 detail leafs
            0 detail illusionary leafs
            0 detail fence leafs
            0 illusionary visblocker leafs
          600 leaffaces
          494 nodefaces
---- MakeFaceEdges ----
---- GrowRegions ----
Processing hull 1...
Processing hull 2...
---- WriteBSPFile ----
Wrote ../../../../../Game/maps/unnamed.bsp
          207 planes             4140
          633 vertexes           7596
          268 nodes              6432
           16 texinfo             640
          500 faces             10000
          482 clipnodes          3856
          174 leafs              4872
          606 marksurfaces       1212
         1975 surfedges          7900
         1297 edges              5188
            5 textures          27424
              lightdata             0
              visdata               0
              entdata            1412

0.022 seconds elapsed
Peak memory usage: 2330396 (2.2M)
