---- qbsp / ericw-tools v0.18.1-32-g6660c5f ----
Input file: ../../../../../MapDir/working/omen_map-test_1.map
Output file: ../../../../../Game/maps/unnamed.bsp

---- LoadMapFile ----
*** WARNING 06: No info_player_deathmatch entities in level
          231 faces
           38 brushes
           10 entities
            7 unique texnames
           22 texinfo

Opened WAD: I:/OMEN/Assets/Tools/quake-leveldesign-starterkit/wads/id1.wad
Processing hull 0...
---- Brush_LoadEntity ----
           36 brushes
           82 planes
---- CSGFaces ----
          219 brushfaces
          258 csgfaces
          208 mergedfaces
---- SolidBSP ----
          262 split nodes
           96 solid leafs
          167 empty leafs
            0 water leafs
            0 detail leafs
            0 detail illusionary leafs
            0 detail fence leafs
            0 illusionary visblocker leafs
          603 leaffaces
          496 nodefaces
---- MakeFaceEdges ----
---- GrowRegions ----
Processing hull 1...
Processing hull 2...
---- WriteBSPFile ----
Wrote ../../../../../Game/maps/unnamed.bsp
          217 planes             4340
          652 vertexes           7824
          274 nodes              6576
           22 texinfo             880
          512 faces             10240
          494 clipnodes          3952
          180 leafs              5040
          619 marksurfaces       1238
         2031 surfedges          8124
         1328 edges              5312
            7 textures          38392
              lightdata             0
              visdata               0
              entdata            1028

0.023 seconds elapsed
Peak memory usage: 2354798 (2.2M)
