---- qbsp / ericw-tools v0.18.1-32-g6660c5f ----
Input file: ../../../../../MapDir/working/omen_map-test_1.map
Output file: ../../../../../Game/maps/unnamed.bsp

---- LoadMapFile ----
*** WARNING 06: No info_player_deathmatch entities in level
          243 faces
           40 brushes
            9 entities
            8 unique texnames
           22 texinfo

Opened WAD: I:/OMEN/Assets/Tools/quake-leveldesign-starterkit/wads/id1.wad
Processing hull 0...
---- Brush_LoadEntity ----
           39 brushes
           91 planes
---- CSGFaces ----
          237 brushfaces
          284 csgfaces
          230 mergedfaces
---- SolidBSP ----
          295 split nodes
          109 solid leafs
          187 empty leafs
            0 water leafs
            0 detail leafs
            0 detail illusionary leafs
            0 detail fence leafs
            0 illusionary visblocker leafs
          644 leaffaces
          532 nodefaces
---- MakeFaceEdges ----
---- GrowRegions ----
Processing hull 1...
Processing hull 2...
---- WriteBSPFile ----
Wrote ../../../../../Game/maps/unnamed.bsp
          218 planes             4360
          687 vertexes           8244
          301 nodes              7224
           22 texinfo             880
          538 faces             10760
          564 clipnodes          4512
          194 leafs              5432
          650 marksurfaces       1300
         2127 surfedges          8508
         1409 edges              5636
           13 textures          71296
              lightdata             0
              visdata               0
              entdata             930

0.026 seconds elapsed
Peak memory usage: 2550948 (2.4M)
