---- qbsp / ericw-tools v0.18.1-32-g6660c5f ----
Input file: ../../../../../MapDir/working/omen_map-test_1.map
Output file: ../../../../../Game/maps/unnamed.bsp

---- LoadMapFile ----
*** WARNING 06: No info_player_deathmatch entities in level
          219 faces
           36 brushes
           13 entities
            5 unique texnames
           16 texinfo

Opened WAD: I:/OMEN/Assets/Tools/quake-leveldesign-starterkit/wads/id1.wad
Processing hull 0...
---- Brush_LoadEntity ----
           36 brushes
           82 planes
---- CSGFaces ----
          219 brushfaces
          258 csgfaces
          207 mergedfaces
---- SolidBSP ----
          262 split nodes
           96 solid leafs
          167 empty leafs
            0 water leafs
            0 detail leafs
            0 detail illusionary leafs
            0 detail fence leafs
            0 illusionary visblocker leafs
          600 leaffaces
          494 nodefaces
---- MakeFaceEdges ----
---- GrowRegions ----
Processing hull 1...
Processing hull 2...
---- WriteBSPFile ----
Wrote ../../../../../Game/maps/unnamed.bsp
          198 planes             3960
          625 vertexes           7500
          262 nodes              6288
           16 texinfo             640
          494 faces              9880
          470 clipnodes          3760
          168 leafs              4704
          600 marksurfaces       1200
         1951 surfedges          7804
         1285 edges              5140
            5 textures          27424
              lightdata             0
              visdata               0
              entdata            1371

0.022 seconds elapsed
Peak memory usage: 2317756 (2.2M)
