---- qbsp / ericw-tools v0.18.1-32-g6660c5f ----
Input file: firstmap.map
Output file: firstmap.bsp

---- LoadMapFile ----
*** WARNING 06: No info_player_deathmatch entities in level
           36 faces
            6 brushes
           10 entities
            2 unique texnames
            9 texinfo

Opened WAD: I:/quake-leveldesign-starterkit/wads/id1.wad
Processing hull 0...
---- Brush_LoadEntity ----
            6 brushes
           18 planes
---- CSGFaces ----
           36 brushfaces
           45 csgfaces
           45 mergedfaces
---- SolidBSP ----
           48 split nodes
           14 solid leafs
           35 empty leafs
            0 water leafs
            0 detail leafs
            0 detail illusionary leafs
            0 detail fence leafs
            0 illusionary visblocker leafs
          269 leaffaces
          268 nodefaces
---- Portalize ----
           35 vis leafs
           35 vis clusters
           81 vis portals
---- FillOutside ----
           34 outleafs
---- MergeAll ----
            6 mergefaces
---- SolidBSP ----
            6 split nodes
            6 solid leafs
            1 empty leafs
            0 water leafs
            0 detail leafs
            0 detail illusionary leafs
            0 detail fence leafs
            0 illusionary visblocker leafs
           64 leaffaces
           64 nodefaces
---- Portalize ----
            1 vis leafs
            1 vis clusters
            0 vis portals
---- Tjunc ----
           40 world edges
          168 edge points
            0 edges added by tjunctions
            0 faces added by tjunctions
---- MakeFaceEdges ----
---- GrowRegions ----
Processing hull 1...
*** WARNING 19: No entities in empty space -- no filling performed (hull 1)
Processing hull 2...
*** WARNING 19: No entities in empty space -- no filling performed (hull 2)
---- WriteBSPFile ----
Wrote firstmap.bsp
           41 planes              820
           66 vertexes            792
            6 nodes               144
            3 texinfo             120
           64 faces              1280
          128 clipnodes          1024
            2 leafs                56
           64 marksurfaces        128
          256 surfedges          1024
          129 edges               516
            2 textures          10972
              lightdata             0
              visdata               0
              entdata             649

0.060 seconds elapsed
Peak memory usage: 685516 (0.7M)
