---- qbsp / ericw-tools v0.18.1-32-g6660c5f ----
Input file: testbed.map
Output file: testbed.bsp

---- LoadMapFile ----
*** WARNING 05: No info_player_start entity in level
*** WARNING 06: No info_player_deathmatch entities in level
           36 faces
            6 brushes
            1 entities
            1 unique texnames
            6 texinfo

Opened WAD: I:/quake-leveldesign-starterkit/wads/id1.wad
Processing hull 0...
---- Brush_LoadEntity ----
            6 brushes
           12 planes
---- CSGFaces ----
           36 brushfaces
           36 csgfaces
           36 mergedfaces
---- SolidBSP ----
           24 split nodes
            6 solid leafs
           19 empty leafs
            0 water leafs
            0 detail leafs
            0 detail illusionary leafs
            0 detail fence leafs
            0 illusionary visblocker leafs
           96 leaffaces
           96 nodefaces
---- Portalize ----
           19 vis leafs
           19 vis clusters
           40 vis portals
---- FillOutside ----
*** WARNING 19: No entities in empty space -- no filling performed (hull 0)
---- MakeFaceEdges ----
---- GrowRegions ----
Processing hull 1...
*** WARNING 19: No entities in empty space -- no filling performed (hull 1)
Processing hull 2...
*** WARNING 19: No entities in empty space -- no filling performed (hull 2)
---- WriteBSPFile ----
Wrote testbed.bsp
           39 planes              780
           96 vertexes           1152
           24 nodes               576
            6 texinfo             240
           96 faces              1920
          112 clipnodes           896
           20 leafs               560
           96 marksurfaces        192
          384 surfedges          1536
          217 edges               868
            1 textures           5488
              lightdata             0
              visdata               0
              entdata             102

0.035 seconds elapsed
Peak memory usage: 582312 (0.6M)
