---- qbsp / ericw-tools v0.18.1-32-g6660c5f ----
Input file: testbed.map
Output file: testbed.bsp

---- LoadMapFile ----
*** WARNING 05: No info_player_start entity in level
*** WARNING 06: No info_player_deathmatch entities in level
           60 faces
           10 brushes
            5 entities
            4 unique texnames
           34 texinfo

Opened WAD: I:/quake-leveldesign-starterkit/wads/id1.wad
Processing hull 0...
---- Brush_LoadEntity ----
           10 brushes
           26 planes
---- CSGFaces ----
           60 brushfaces
           76 csgfaces
           63 mergedfaces
---- SolidBSP ----
           84 split nodes
           27 solid leafs
           58 empty leafs
            0 water leafs
            0 detail leafs
            0 detail illusionary leafs
            0 detail fence leafs
            0 illusionary visblocker leafs
          177 leaffaces
          170 nodefaces
---- Portalize ----
           58 vis leafs
           58 vis clusters
          140 vis portals
---- FillOutside ----
           53 outleafs
---- MergeAll ----
           23 mergefaces
---- SolidBSP ----
           21 split nodes
           17 solid leafs
            5 empty leafs
            0 water leafs
            0 detail leafs
            0 detail illusionary leafs
            0 detail fence leafs
            0 illusionary visblocker leafs
           51 leaffaces
           44 nodefaces
---- Portalize ----
            5 vis leafs
            5 vis clusters
            6 vis portals
---- Tjunc ----
           52 world edges
          162 edge points
           42 edges added by tjunctions
            0 faces added by tjunctions
---- MakeFaceEdges ----
---- GrowRegions ----
Processing hull 1...
*** WARNING 19: No entities in empty space -- no filling performed (hull 1)
Processing hull 2...
*** WARNING 19: No entities in empty space -- no filling performed (hull 2)
---- WriteBSPFile ----
Wrote testbed.bsp
           62 planes             1240
           65 vertexes            780
           21 nodes               504
           14 texinfo             560
           44 faces               880
          217 clipnodes          1736
            6 leafs               168
           51 marksurfaces        102
          218 surfedges           872
          110 edges               440
            4 textures          21940
              lightdata             0
              visdata               0
              entdata             346

0.069 seconds elapsed
Peak memory usage: 744742 (0.7M)
