---- qbsp / ericw-tools v0.18.1 ----
Input file: testbed.map
Output file: testbed.bsp

---- LoadMapFile ----
*** WARNING 05: No info_player_start entity in level
*** WARNING 06: No info_player_deathmatch entities in level
           36 faces
            6 brushes
            2 entities
            5 unique texnames
           30 texinfo

Opened WAD: I:/quake-leveldesign-starterkit/wads/id1.wad
Processing hull 0...
---- Brush_LoadEntity ----
            6 brushes
           12 planes
---- CSGFaces ----
           36 brushfaces
           32 csgfaces
           24 mergedfaces
---- SolidBSP ----
           24 split nodes
            6 solid leafs
           19 empty leafs
            0 water leafs
            0 detail leafs
            0 detail illusionary leafs
            0 detail fence leafs
            0 illusionary visblocker leafs
          128 leaffaces
          128 nodefaces
---- Portalize ----
           19 vis leafs
           19 vis clusters
           48 vis portals
---- FillOutside ----
*** WARNING 19: No entities in empty space -- no filling performed (hull 0)
---- MakeFaceEdges ----
---- GrowRegions ----
Processing hull 1...
*** WARNING 19: No entities in empty space -- no filling performed (hull 1)
Processing hull 2...
*** WARNING 19: No entities in empty space -- no filling performed (hull 2)
---- WriteBSPFile ----
Wrote testbed.bsp
           34 planes              680
          168 vertexes           2016
           24 nodes               576
           20 texinfo             800
          128 faces              2560
           48 clipnodes           384
           20 leafs               560
          128 marksurfaces        256
          512 surfedges          2048
          309 edges              1236
            5 textures          27424
              lightdata             0
              visdata               0
              entdata             102

0.035 seconds elapsed
Peak memory usage: 493588 (482.0k)
