---- qbsp / ericw-tools v0.18.1-32-g6660c5f ----
Input file: unnamed.map
Output file: unnamed.bsp

---- LoadMapFile ----
*** WARNING 06: No info_player_deathmatch entities in level
           36 faces
            6 brushes
            5 entities
            1 unique texnames
            6 texinfo

Opened WAD: I:/OMEN/Assets/Tools/quake-leveldesign-starterkit/wads/id1.wad
Processing hull 0...
---- Brush_LoadEntity ----
            6 brushes
           12 planes
---- CSGFaces ----
           36 brushfaces
           36 csgfaces
           36 mergedfaces
---- SolidBSP ----
           24 split nodes
            6 solid leafs
           19 empty leafs
            0 water leafs
            0 detail leafs
            0 detail illusionary leafs
            0 detail fence leafs
            0 illusionary visblocker leafs
           96 leaffaces
           96 nodefaces
---- MakeFaceEdges ----
---- GrowRegions ----
---- WriteBSPFile ----
Wrote unnamed.bsp
           12 planes              240
           96 vertexes           1152
           24 nodes               576
            6 texinfo             240
           96 faces              1920
            0 clipnodes             0
           20 leafs               560
           96 marksurfaces        192
          384 surfedges          1536
          225 edges               900
            1 textures           5488
              lightdata             0
              visdata               0
              entdata             485

0.023 seconds elapsed
Peak memory usage: 294040 (287.1k)
