---- qbsp / ericw-tools v0.18.1-32-g6660c5f ----
Input file: ../../../../../MapDir/id1/maps/testbed.map
Output file: ../../../../../MapDir/id1/maps/testbed.bsp

---- LoadMapFile ----
*** WARNING 06: No info_player_deathmatch entities in level
           60 faces
           10 brushes
            6 entities
            4 unique texnames
           34 texinfo

Opened WAD: I:/quake-leveldesign-starterkit/wads/id1.wad
Processing hull 0...
---- Brush_LoadEntity ----
           10 brushes
           26 planes
---- CSGFaces ----
           60 brushfaces
           76 csgfaces
           63 mergedfaces
---- SolidBSP ----
           84 split nodes
           27 solid leafs
           58 empty leafs
            0 water leafs
            0 detail leafs
            0 detail illusionary leafs
            0 detail fence leafs
            0 illusionary visblocker leafs
          177 leaffaces
          170 nodefaces
---- Portalize ----
           58 vis leafs
           58 vis clusters
          140 vis portals
---- FillOutside ----
           53 outleafs
---- MergeAll ----
           23 mergefaces
---- SolidBSP ----
           21 split nodes
           17 solid leafs
            5 empty leafs
            0 water leafs
            0 detail leafs
            0 detail illusionary leafs
            0 detail fence leafs
            0 illusionary visblocker leafs
           51 leaffaces
           44 nodefaces
---- Portalize ----
            5 vis leafs
            5 vis clusters
            6 vis portals
---- Tjunc ----
           52 world edges
          162 edge points
           42 edges added by tjunctions
            0 faces added by tjunctions
---- MakeFaceEdges ----
---- GrowRegions ----
---- WriteBSPFile ----
Wrote ../../../../../MapDir/id1/maps/testbed.bsp
           14 planes              280
           65 vertexes            780
           21 nodes               504
           14 texinfo             560
           44 faces               880
            0 clipnodes             0
            6 leafs               168
           51 marksurfaces        102
          218 surfedges           872
          110 edges               440
            4 textures          21940
              lightdata             0
              visdata               0
              entdata             417

0.023 seconds elapsed
Peak memory usage: 539148 (0.5M)
